qchem_data/log/c2f5.log
 OpenBabel03032622033D
Gaussian applications/g16/g16/g16 # opt freq uwb97xd/6-311+g(2d,2p) geom=connect
  7  6  0  0  0  0  0  0  0  0999 V2000
    0.6097    0.0002   -0.0200 C   0  0  0  0  0  0  0  0  0  0  0  0
    1.1847   -1.0830   -0.5296 F   0  0  0  0  0  0  0  0  0  0  0  0
    1.1846    1.0837   -0.5284 F   0  0  0  0  0  0  0  0  0  0  0  0
    0.8180   -0.0005    1.3024 F   0  0  0  0  0  0  0  0  0  0  0  0
   -1.5069   -1.0900    0.0038 F   0  0  0  0  0  0  0  0  0  0  0  0
   -1.5076    1.0897    0.0034 F   0  0  0  0  0  0  0  0  0  0  0  0
   -0.8689    0.0001   -0.3574 C   0  0  0  0  0  3  0  0  0  0  0  0
  1  4  1  0  0  0  0
  2  1  1  0  0  0  0
  3  1  1  0  0  0  0
  7  1  1  0  0  0  0
  7  6  1  0  0  0  0
  7  5  1  0  0  0  0
M  END
>  <program>
Gaussian 16, Revision A.03

>  <basis>
6-311+G(2d,2p) (5D, 7F)

$$$$
