qchem_data/log/c2f5oh.log
 OpenBabel03072616063D
Gaussian applications/g16/g16/g16 # opt wb97xd/6-311+g(2d,2p) geom=connectivity 
  9  8  0  0  0  0  0  0  0  0999 V2000
   -0.0248   -1.3920    1.0801 F   0  0  0  0  0  0  0  0  0  0  0  0
   -1.6680   -0.4996    0.0000 F   0  0  0  0  0  0  0  0  0  0  0  0
   -0.0248    1.3737   -1.0798 F   0  0  0  0  0  0  0  0  0  0  0  0
   -0.0248    1.3737    1.0798 F   0  0  0  0  0  0  0  0  0  0  0  0
    0.3772    0.6699    0.0000 C   0  0  0  0  0  0  0  0  0  0  0  0
   -0.3545   -0.6951    0.0000 C   0  0  0  0  0  0  0  0  0  0  0  0
   -0.0248   -1.3920   -1.0801 F   0  0  0  0  0  0  0  0  0  0  0  0
    1.7010    0.4594    0.0000 O   0  0  0  0  0  0  0  0  0  0  0  0
    2.1622    1.3030    0.0000 H   0  0  0  0  0  0  0  0  0  0  0  0
  2  6  1  0  0  0  0
  3  5  1  0  0  0  0
  5  6  1  0  0  0  0
  5  8  1  0  0  0  0
  5  4  1  0  0  0  0
  6  1  1  0  0  0  0
  7  6  1  0  0  0  0
  8  9  1  0  0  0  0
M  END
>  <program>
Gaussian 16, Revision A.03

>  <basis>
6-311+G(2d,2p) (5D, 7F)

$$$$
