qchem_data/log/c3f7.log
 OpenBabel03032622033D
Gaussian applications/g16/g16/g16 # opt uwb97xd/6-311+g(2d,2p) freq geom=connect
 10  9  0  0  0  0  0  0  0  0999 V2000
    1.5237    0.1136    0.0000 C   0  0  0  0  0  3  0  0  0  0  0  0
    1.8762   -0.5292    1.0895 F   0  0  0  0  0  0  0  0  0  0  0  0
    0.1137    0.6729    0.0000 C   0  0  0  0  0  0  0  0  0  0  0  0
   -0.9384   -1.1494   -1.0805 F   0  0  0  0  0  0  0  0  0  0  0  0
   -0.0371    1.4318    1.0963 F   0  0  0  0  0  0  0  0  0  0  0  0
   -0.9383   -1.1497    1.0802 F   0  0  0  0  0  0  0  0  0  0  0  0
   -2.2077    0.2236    0.0001 F   0  0  0  0  0  0  0  0  0  0  0  0
   -1.0284   -0.3816    0.0000 C   0  0  0  0  0  0  0  0  0  0  0  0
    1.8764   -0.5289   -1.0895 F   0  0  0  0  0  0  0  0  0  0  0  0
   -0.0372    1.4319   -1.0961 F   0  0  0  0  0  0  0  0  0  0  0  0
  1  2  1  0  0  0  0
  3  8  1  0  0  0  0
  3  1  1  0  0  0  0
  3  5  1  0  0  0  0
  4  8  1  0  0  0  0
  8  7  1  0  0  0  0
  8  6  1  0  0  0  0
  9  1  1  0  0  0  0
 10  3  1  0  0  0  0
M  END
>  <program>
Gaussian 16, Revision A.03

>  <basis>
6-311+G(2d,2p) (5D, 7F)

$$$$
