qchem_data/log/co.log
 OpenBabel03032622033D
Gaussian applications/g16/g16/g16 # opt=(calcall) uwb97xd/6-311+g(2d,2p) geom=co
  2  1  0  0  0  0  0  0  0  0999 V2000
   -0.0000    0.0000   -0.6420 C   0  0  0  0  0  2  0  0  0  0  0  0
    0.0000   -0.0000    0.4815 O   0  0  0  0  0  0  0  0  0  0  0  0
  1  2  2  0  0  0  0
M  END
>  <program>
Gaussian 16, Revision A.03

>  <basis>
6-311+G(2d,2p) (5D, 7F)

$$$$
