qchem_data/log/tfa.log
 OpenBabel03032622033D
Gaussian applications/g16/g16/g16 # opt wb97xd/6-311+g(2d,2p) geom=connectivity 
  8  7  0  0  0  0  0  0  0  0999 V2000
    0.5999    0.0010   -0.0001 C   0  0  0  0  0  0  0  0  0  0  0  0
    0.9955    0.6730    1.0823 F   0  0  0  0  0  0  0  0  0  0  0  0
    1.1848   -1.1834   -0.0017 F   0  0  0  0  0  0  0  0  0  0  0  0
   -0.9388   -0.1591   -0.0000 C   0  0  0  0  0  0  0  0  0  0  0  0
   -1.4883   -1.2146    0.0002 O   0  0  0  0  0  0  0  0  0  0  0  0
   -1.5213    1.0349   -0.0005 O   0  0  0  0  0  0  0  0  0  0  0  0
   -2.4763    0.9014    0.0001 H   0  0  0  0  0  0  0  0  0  0  0  0
    0.9959    0.6754   -1.0802 F   0  0  0  0  0  0  0  0  0  0  0  0
  1  4  1  0  0  0  0
  1  2  1  0  0  0  0
  3  1  1  0  0  0  0
  4  5  2  0  0  0  0
  6  4  1  0  0  0  0
  6  7  1  0  0  0  0
  8  1  1  0  0  0  0
M  END
>  <program>
Gaussian 16, Revision A.03

>  <basis>
6-311+G(2d,2p) (5D, 7F)

$$$$
