qchem_data/log/c2f6.log
 OpenBabel03072616063D
Gaussian applications/g16/g16/g16 # opt freq rwb97xd/6-311+g(2d,2p) geom=connect
  8  7  0  0  0  0  0  0  0  0999 V2000
    0.0000    0.0000    0.7749 C   0  0  0  0  0  0  0  0  0  0  0  0
    0.0000    1.2477    1.2240 F   0  0  0  0  0  0  0  0  0  0  0  0
   -1.0805   -0.6238    1.2240 F   0  0  0  0  0  0  0  0  0  0  0  0
    1.0805    0.6238   -1.2240 F   0  0  0  0  0  0  0  0  0  0  0  0
   -0.0000   -1.2477   -1.2240 F   0  0  0  0  0  0  0  0  0  0  0  0
    1.0805   -0.6238    1.2240 F   0  0  0  0  0  0  0  0  0  0  0  0
   -0.0000   -0.0000   -0.7749 C   0  0  0  0  0  0  0  0  0  0  0  0
   -1.0805    0.6238   -1.2240 F   0  0  0  0  0  0  0  0  0  0  0  0
  1  2  1  0  0  0  0
  1  3  1  0  0  0  0
  1  6  1  0  0  0  0
  4  7  1  0  0  0  0
  5  7  1  0  0  0  0
  7  1  1  0  0  0  0
  8  7  1  0  0  0  0
M  END
>  <program>
Gaussian 16, Revision A.03

>  <basis>
6-311+G(2d,2p) (5D, 7F)

$$$$
