qchem_data/log/cf4.log
 OpenBabel03072616073D
Gaussian applications/g16/g16/g16 # opt=calcall wb97xd/6-311+g(2d,2p) geom=conne
  5  4  0  0  0  0  0  0  0  0999 V2000
    0.0000    0.0000    0.0000 C   0  0  0  0  0  0  0  0  0  0  0  0
    0.7615    0.7615    0.7615 F   0  0  0  0  0  0  0  0  0  0  0  0
   -0.7615   -0.7615    0.7615 F   0  0  0  0  0  0  0  0  0  0  0  0
   -0.7615    0.7615   -0.7615 F   0  0  0  0  0  0  0  0  0  0  0  0
    0.7615   -0.7615   -0.7615 F   0  0  0  0  0  0  0  0  0  0  0  0
  1  2  1  0  0  0  0
  1  3  1  0  0  0  0
  4  1  1  0  0  0  0
  5  1  1  0  0  0  0
M  END
>  <program>
Gaussian 16, Revision A.03

>  <basis>
6-311+G(2d,2p) (5D, 7F)

$$$$
