Title Card Required
 OpenBabel05122616223D

  8  7  0  0  0  0  0  0  0  0999 V2000
    0.8570    0.0000   -0.4359 C   0  0  0  0  0  0  0  0  0  0  0  0
   -0.6165    0.0000   -0.0022 C   0  0  0  0  0  0  0  0  0  0  0  0
   -1.2237   -1.0811   -0.4897 F   0  0  0  0  0  0  0  0  0  0  0  0
    1.4592   -1.0939    0.0612 F   0  0  0  0  0  0  0  0  0  0  0  0
   -0.7357   -0.0000    1.3185 F   0  0  0  0  0  0  0  0  0  0  0  0
    1.4592    1.0939    0.0612 F   0  0  0  0  0  0  0  0  0  0  0  0
   -1.2237    1.0811   -0.4897 F   0  0  0  0  0  0  0  0  0  0  0  0
    0.9390   -0.0000   -1.5248 H   0  0  0  0  0  0  0  0  0  0  0  0
  1  2  1  0  0  0  0
  1  4  1  0  0  0  0
  1  6  1  0  0  0  0
  1  8  1  0  0  0  0
  2  3  1  0  0  0  0
  2  5  1  0  0  0  0
  2  7  1  0  0  0  0
M  END
$$$$
