Title Card Required
 OpenBabel05122616213D

  8  7  0  0  0  0  0  0  0  0999 V2000
   -0.0000    0.0000    0.7609 C   0  0  0  0  0  0  0  0  0  0  0  0
    0.5081   -0.8802    1.1601 H   0  0  0  0  0  0  0  0  0  0  0  0
   -1.0163    0.0001    1.1601 H   0  0  0  0  0  0  0  0  0  0  0  0
    0.5082    0.8801    1.1601 H   0  0  0  0  0  0  0  0  0  0  0  0
   -0.0000   -0.0000   -0.7609 C   0  0  0  0  0  0  0  0  0  0  0  0
   -0.5082    0.8801   -1.1601 H   0  0  0  0  0  0  0  0  0  0  0  0
    1.0163    0.0001   -1.1601 H   0  0  0  0  0  0  0  0  0  0  0  0
   -0.5081   -0.8802   -1.1601 H   0  0  0  0  0  0  0  0  0  0  0  0
  1  2  1  0  0  0  0
  1  3  1  0  0  0  0
  1  4  1  0  0  0  0
  1  5  1  0  0  0  0
  5  6  1  0  0  0  0
  5  7  1  0  0  0  0
  5  8  1  0  0  0  0
M  END
$$$$
