Title Card Required
 OpenBabel05122616213D

  9  8  0  0  0  0  0  0  0  0999 V2000
    0.9861   -0.2210    0.0107 C   0  0  0  0  0  0  0  0  0  0  0  0
    1.8230    0.5276   -0.6920 F   0  0  0  0  0  0  0  0  0  0  0  0
    1.4474   -0.3422    1.2457 F   0  0  0  0  0  0  0  0  0  0  0  0
    0.9175   -1.4329   -0.5464 F   0  0  0  0  0  0  0  0  0  0  0  0
   -0.4295    0.3963    0.0161 C   0  0  0  0  0  0  0  0  0  0  0  0
   -0.4147    1.5491    0.7138 F   0  0  0  0  0  0  0  0  0  0  0  0
   -0.7777    0.6642   -1.2515 F   0  0  0  0  0  0  0  0  0  0  0  0
   -1.4286   -0.5291    0.7876 C   0  0  0  0  0  2  0  0  0  0  0  0
   -2.4142   -0.7299   -0.0125 F   0  0  0  0  0  0  0  0  0  0  0  0
  1  2  1  0  0  0  0
  1  3  1  0  0  0  0
  1  4  1  0  0  0  0
  1  5  1  0  0  0  0
  5  6  1  0  0  0  0
  5  7  1  0  0  0  0
  5  8  1  0  0  0  0
  8  9  1  0  0  0  0
M  END
$$$$
