qchem_data/log/butane.log
 OpenBabel03072616073D
Gaussian 16 # opt wb97xd/6-311+g(2d) geom=connectivity freq integral=grid=superf
 14 13  0  0  0  0  0  0  0  0999 V2000
    1.9960   -0.1178    0.0745 C   0  0  0  0  0  0  0  0  0  0  0  0
    2.9088    0.8216   -0.1346 F   0  0  0  0  0  0  0  0  0  0  0  0
    2.1532   -0.5983    1.2989 F   0  0  0  0  0  0  0  0  0  0  0  0
    2.1772   -1.0957   -0.8041 F   0  0  0  0  0  0  0  0  0  0  0  0
    0.5836    0.5152   -0.0936 C   0  0  0  0  0  0  0  0  0  0  0  0
    0.4108    1.3882    0.9086 F   0  0  0  0  0  0  0  0  0  0  0  0
    0.5672    1.1769   -1.2560 F   0  0  0  0  0  0  0  0  0  0  0  0
   -0.5836   -0.5152   -0.0936 C   0  0  0  0  0  0  0  0  0  0  0  0
   -0.4108   -1.3883    0.9086 F   0  0  0  0  0  0  0  0  0  0  0  0
   -0.5672   -1.1769   -1.2560 F   0  0  0  0  0  0  0  0  0  0  0  0
   -1.9960    0.1178    0.0745 C   0  0  0  0  0  0  0  0  0  0  0  0
   -2.9088   -0.8216   -0.1347 F   0  0  0  0  0  0  0  0  0  0  0  0
   -2.1772    1.0958   -0.8041 F   0  0  0  0  0  0  0  0  0  0  0  0
   -2.1532    0.5982    1.2989 F   0  0  0  0  0  0  0  0  0  0  0  0
  1  3  1  0  0  0  0
  2  1  1  0  0  0  0
  4  1  1  0  0  0  0
  5  1  1  0  0  0  0
  5  6  1  0  0  0  0
  7  5  1  0  0  0  0
  8  5  1  0  0  0  0
  8 11  1  0  0  0  0
  8  9  1  0  0  0  0
 10  8  1  0  0  0  0
 11 14  1  0  0  0  0
 12 11  1  0  0  0  0
 13 11  1  0  0  0  0
M  END
>  <program>
Gaussian 16, Revision A.03

>  <basis>
6-311+G(2d) (5D, 7F)

$$$$
