/home/tau/projects/t99_calc/v1/qchem_data/log/1H_methane.log
 OpenBabel03102621333D
Gaussian applications/g16/g16/g16 # opt wb97xd/6-311+g(2d,2p) geom=connectivity 
  5  4  0  0  0  0  0  0  0  0999 V2000
    0.0000    0.0000    0.3386 C   0  0  0  0  0  0  0  0  0  0  0  0
    0.0000    1.2494   -0.1281 F   0  0  0  0  0  0  0  0  0  0  0  0
   -1.0820   -0.6247   -0.1281 F   0  0  0  0  0  0  0  0  0  0  0  0
    1.0820   -0.6247   -0.1281 F   0  0  0  0  0  0  0  0  0  0  0  0
    0.0000    0.0000    1.4273 H   0  0  0  0  0  0  0  0  0  0  0  0
  1  5  1  0  0  0  0
  2  1  1  0  0  0  0
  3  1  1  0  0  0  0
  4  1  1  0  0  0  0
M  END
>  <program>
Gaussian 16, Revision A.03

>  <basis>
6-311+G(2d,2p) (5D, 7F)

$$$$
