/home/tau/projects/t99_calc/v1/qchem_data/log/2_butene_ip.log
 OpenBabel03102617043D
Gaussian 16 # opt wb97xd/6-311+g(2d,2p) geom=connectivity scf=xqc
 12 11  0  0  0  0  0  0  0  0999 V2000
    2.0361    0.0509    0.0003 C   0  0  0  0  0  0  0  0  0  0  0  0
    2.8227   -0.9890    0.0004 F   0  0  0  0  0  0  0  0  0  0  0  0
    2.2130    0.7821   -1.0825 F   0  0  0  0  0  0  0  0  0  0  0  0
    2.2127    0.7822    1.0831 F   0  0  0  0  0  0  0  0  0  0  0  0
    0.5601   -0.4332    0.0002 C   0  0  0  0  0  0  0  0  0  0  0  0
    0.3447   -1.6784    0.0003 F   0  0  0  0  0  0  0  0  0  0  0  0
   -0.5601    0.4332   -0.0002 C   0  0  0  0  0  0  0  0  0  0  0  0
   -0.3447    1.6784   -0.0003 F   0  0  0  0  0  0  0  0  0  0  0  0
   -2.0361   -0.0509   -0.0003 C   0  0  0  0  0  0  0  0  0  0  0  0
   -2.8227    0.9890   -0.0004 F   0  0  0  0  0  0  0  0  0  0  0  0
   -2.2130   -0.7821    1.0825 F   0  0  0  0  0  0  0  0  0  0  0  0
   -2.2127   -0.7822   -1.0831 F   0  0  0  0  0  0  0  0  0  0  0  0
  1  2  1  0  0  0  0
  1  4  1  0  0  0  0
  3  1  1  0  0  0  0
  5  1  1  0  0  0  0
  5  6  1  0  0  0  0
  7  5  2  0  0  0  0
  8  7  1  0  0  0  0
  9  7  1  0  0  0  0
  9 11  1  0  0  0  0
 10  9  1  0  0  0  0
 12  9  1  0  0  0  0
M  END
>  <program>
Gaussian 16, Revision A.03

>  <basis>
6-311+G(2d,2p) (5D, 7F)

$$$$
