/home/tau/projects/t99_calc/v1/qchem_data/log/41_pentene.log
 OpenBabel03092615213D
Gaussian applications/g16/g16/g16 # opt freq wb97xd/6-311+g(2d,2p) geom=connecti
 15 14  0  0  0  0  0  0  0  0999 V2000
   -0.7976   -0.3737    0.4043 C   0  0  0  0  0  0  0  0  0  0  0  0
   -0.6152   -0.0605    1.7014 F   0  0  0  0  0  0  0  0  0  0  0  0
   -0.6870   -1.7089    0.2687 F   0  0  0  0  0  0  0  0  0  0  0  0
   -2.1733    0.0676   -0.0411 C   0  0  0  0  0  0  0  0  0  0  0  0
   -2.4761    1.2886    0.4010 F   0  0  0  0  0  0  0  0  0  0  0  0
    0.3410    0.2798   -0.4295 C   0  0  0  0  0  0  0  0  0  0  0  0
    1.7898   -0.0220    0.0444 C   0  0  0  0  0  0  0  0  0  0  0  0
    0.1832    1.6115   -0.4147 F   0  0  0  0  0  0  0  0  0  0  0  0
    0.2283   -0.1547   -1.6947 F   0  0  0  0  0  0  0  0  0  0  0  0
    2.0122   -1.3295    0.0868 F   0  0  0  0  0  0  0  0  0  0  0  0
    2.0109    0.4939    1.2450 F   0  0  0  0  0  0  0  0  0  0  0  0
   -2.9957   -0.6404   -0.7826 C   0  0  0  0  0  0  0  0  0  0  0  0
   -2.7078   -1.6228   -1.1187 H   0  0  0  0  0  0  0  0  0  0  0  0
   -3.9618   -0.2434   -1.0548 H   0  0  0  0  0  0  0  0  0  0  0  0
    2.6419    0.5259   -0.8157 F   0  0  0  0  0  0  0  0  0  0  0  0
  1  2  1  0  0  0  0
  3  1  1  0  0  0  0
  4  5  1  0  0  0  0
  4  1  1  0  0  0  0
  6  8  1  0  0  0  0
  6  7  1  0  0  0  0
  6  1  1  0  0  0  0
  7 10  1  0  0  0  0
  7 11  1  0  0  0  0
  9  6  1  0  0  0  0
 12  4  2  0  0  0  0
 13 12  1  0  0  0  0
 14 12  1  0  0  0  0
 15  7  1  0  0  0  0
M  END
>  <program>
Gaussian 16, Revision A.03

>  <basis>
6-311+G(2d,2p) (5D, 7F)

$$$$
