/home/tau/projects/t99_calc/v1/qchem_data/log/42_hexene.log
 OpenBabel03102621333D
Gaussian 16 # opt freq wb97xd/6-311+g(2d,2p) geom=connectivity
 18 17  0  0  0  0  0  0  0  0999 V2000
    1.7564    0.3583    0.2199 C   0  0  0  0  0  0  0  0  0  0  0  0
    1.6875    1.1634    1.3078 F   0  0  0  0  0  0  0  0  0  0  0  0
    1.8771    1.1472   -0.8698 F   0  0  0  0  0  0  0  0  0  0  0  0
    2.9155   -0.5779    0.3666 C   0  0  0  0  0  0  0  0  0  0  0  0
    0.4046   -0.4044    0.1042 C   0  0  0  0  0  0  0  0  0  0  0  0
   -0.8407    0.4752   -0.2167 C   0  0  0  0  0  0  0  0  0  0  0  0
   -2.2051   -0.2381    0.0186 C   0  0  0  0  0  0  0  0  0  0  0  0
    0.1992   -1.0506    1.2683 F   0  0  0  0  0  0  0  0  0  0  0  0
    0.5184   -1.3190   -0.8724 F   0  0  0  0  0  0  0  0  0  0  0  0
   -0.7908    0.8323   -1.5065 F   0  0  0  0  0  0  0  0  0  0  0  0
   -0.8373    1.5797    0.5406 F   0  0  0  0  0  0  0  0  0  0  0  0
   -2.4292   -0.4160    1.3129 F   0  0  0  0  0  0  0  0  0  0  0  0
   -2.2345   -1.4168   -0.5922 F   0  0  0  0  0  0  0  0  0  0  0  0
    3.8428   -0.7264   -0.5606 C   0  0  0  0  0  0  0  0  0  0  0  0
    3.8055   -0.1794   -1.4922 H   0  0  0  0  0  0  0  0  0  0  0  0
    4.6718   -1.4024   -0.4066 H   0  0  0  0  0  0  0  0  0  0  0  0
    2.9371   -1.1229    1.3005 H   0  0  0  0  0  0  0  0  0  0  0  0
   -3.1743    0.5225   -0.4770 F   0  0  0  0  0  0  0  0  0  0  0  0
  1  4  1  0  0  0  0
  1  2  1  0  0  0  0
  3  1  1  0  0  0  0
  4 17  1  0  0  0  0
  5  1  1  0  0  0  0
  5  8  1  0  0  0  0
  6  7  1  0  0  0  0
  6  5  1  0  0  0  0
  6 11  1  0  0  0  0
  7 12  1  0  0  0  0
  9  5  1  0  0  0  0
 10  6  1  0  0  0  0
 13  7  1  0  0  0  0
 14 16  1  0  0  0  0
 14  4  2  0  0  0  0
 15 14  1  0  0  0  0
 18  7  1  0  0  0  0
M  END
>  <program>
Gaussian 16, Revision A.03

>  <basis>
6-311+G(2d,2p) (5D, 7F)

$$$$
