/home/tau/projects/t99_calc/v1/qchem_data/log/c2f6.log
 OpenBabel03102621333D
Gaussian applications/g16/g16/g16 # opt freq wb97xd/6-311+g(2d) geom=connectivit
  8  7  0  0  0  0  0  0  0  0999 V2000
    0.0000    0.0000    0.7749 C   0  0  0  0  0  0  0  0  0  0  0  0
    0.0000    0.0000   -0.7749 C   0  0  0  0  0  0  0  0  0  0  0  0
   -0.6239    1.0806    1.2241 F   0  0  0  0  0  0  0  0  0  0  0  0
    0.6239    1.0806   -1.2241 F   0  0  0  0  0  0  0  0  0  0  0  0
    1.2477   -0.0000    1.2241 F   0  0  0  0  0  0  0  0  0  0  0  0
    0.6239   -1.0806   -1.2241 F   0  0  0  0  0  0  0  0  0  0  0  0
   -0.6239   -1.0806    1.2241 F   0  0  0  0  0  0  0  0  0  0  0  0
   -1.2477   -0.0000   -1.2241 F   0  0  0  0  0  0  0  0  0  0  0  0
  1  3  1  0  0  0  0
  1  5  1  0  0  0  0
  1  7  1  0  0  0  0
  2  1  1  0  0  0  0
  4  2  1  0  0  0  0
  6  2  1  0  0  0  0
  8  2  1  0  0  0  0
M  END
>  <program>
Gaussian 16, Revision A.03

>  <basis>
6-311+G(2d) (5D, 7F)

$$$$
