/home/tau/projects/t99_calc/v1/qchem_data/log/c5_prim_sec_rad_isots.log
 OpenBabel03102621333D
Gaussian 16 # opt=(calcall,ts,noeigentest,maxstep=5) uwb97xd/6-311+g(2d,2p) geom
 16 14  0  0  0  0  0  0  0  0999 V2000
   -0.1058    0.5118   -0.3479 C   0  0  0  0  0  0  0  0  0  0  0  0
   -0.1340   -0.0132   -1.5754 F   0  0  0  0  0  0  0  0  0  0  0  0
   -1.4565    0.3601    0.3272 C   0  0  0  0  0  0  0  0  0  0  0  0
   -1.6719    1.1557    1.3393 F   0  0  0  0  0  0  0  0  0  0  0  0
   -2.7201    1.0528   -1.0580 F   0  0  0  0  0 15  0  0  0  0  0  0
   -2.3647   -0.6368    0.0848 C   0  0  0  0  0  0  0  0  0  0  0  0
   -3.4232   -0.7718    0.7975 F   0  0  0  0  0  0  0  0  0  0  0  0
   -2.2040   -1.5587   -0.7909 F   0  0  0  0  0  0  0  0  0  0  0  0
    0.1908    1.8124   -0.4185 F   0  0  0  0  0  0  0  0  0  0  0  0
    1.0037   -0.2148    0.4694 C   0  0  0  0  0  0  0  0  0  0  0  0
    1.0345    0.3078    1.7029 F   0  0  0  0  0  0  0  0  0  0  0  0
    0.6603   -1.5123    0.5594 F   0  0  0  0  0  0  0  0  0  0  0  0
    2.4400   -0.1435   -0.1182 C   0  0  0  0  0  0  0  0  0  0  0  0
    2.8403    1.1152   -0.2200 F   0  0  0  0  0  0  0  0  0  0  0  0
    3.2620   -0.7906    0.6991 F   0  0  0  0  0  0  0  0  0  0  0  0
    2.4874   -0.7151   -1.3124 F   0  0  0  0  0  0  0  0  0  0  0  0
  1  3  1  0  0  0  0
  1 10  1  0  0  0  0
  2  1  1  0  0  0  0
  3  4  1  0  0  0  0
  6  3  2  0  0  0  0
  6  7  1  0  0  0  0
  8  6  1  0  0  0  0
  9  1  1  0  0  0  0
 10 12  1  0  0  0  0
 10 11  1  0  0  0  0
 13 10  1  0  0  0  0
 13 15  1  0  0  0  0
 14 13  1  0  0  0  0
 16 13  1  0  0  0  0
M  END
>  <program>
Gaussian 16, Revision C.02

>  <basis>
6-311+G(2d,2p) (5D, 7F)

$$$$
