/home/tau/projects/t99_calc/v1/qchem_data/log/cbutane.log
 OpenBabel03092615213D
Gaussian applications/g16/g16/g16 # freq wb97xd/6-311+g(2d) geom=connectivity
 12 12  0  0  0  0  0  0  0  0999 V2000
   -1.0412   -0.0000   -0.2254 C   0  0  0  0  0  0  0  0  0  0  0  0
   -1.1918   -0.0000   -1.5670 F   0  0  0  0  0  0  0  0  0  0  0  0
   -2.2933   -0.0000    0.2794 F   0  0  0  0  0  0  0  0  0  0  0  0
    0.0000    1.0412    0.2254 C   0  0  0  0  0  0  0  0  0  0  0  0
    0.0000    2.2933   -0.2794 F   0  0  0  0  0  0  0  0  0  0  0  0
    0.0000    1.1918    1.5670 F   0  0  0  0  0  0  0  0  0  0  0  0
    1.0412   -0.0000   -0.2254 C   0  0  0  0  0  0  0  0  0  0  0  0
    2.2933   -0.0000    0.2794 F   0  0  0  0  0  0  0  0  0  0  0  0
    1.1918    0.0000   -1.5670 F   0  0  0  0  0  0  0  0  0  0  0  0
   -0.0000   -1.0412    0.2254 C   0  0  0  0  0  0  0  0  0  0  0  0
   -0.0000   -2.2933   -0.2794 F   0  0  0  0  0  0  0  0  0  0  0  0
   -0.0000   -1.1918    1.5670 F   0  0  0  0  0  0  0  0  0  0  0  0
  1  4  1  0  0  0  0
  1 10  1  0  0  0  0
  1  3  1  0  0  0  0
  2  1  1  0  0  0  0
  4  6  1  0  0  0  0
  5  4  1  0  0  0  0
  7  4  1  0  0  0  0
  7 10  1  0  0  0  0
  7  8  1  0  0  0  0
  9  7  1  0  0  0  0
 10 12  1  0  0  0  0
 11 10  1  0  0  0  0
M  END
>  <program>
Gaussian 16, Revision A.03

>  <basis>
6-311+G(2d) (5D, 7F)

$$$$
