/home/tau/projects/t99_calc/v1/qchem_data/log/cf2.log
 OpenBabel03102617043D
Gaussian applications/g16/g16/g16 # opt freq uwb97xd/6-311+g(2d) geom=connectivi
  3  2  0  0  0  0  0  0  0  0999 V2000
    0.0000    0.5948    0.0000 C   0  0  0  0  0  2  0  0  0  0  0  0
    1.0278   -0.1979   -0.0000 F   0  0  0  0  0  0  0  0  0  0  0  0
   -1.0278   -0.1986    0.0000 F   0  0  0  0  0  0  0  0  0  0  0  0
  1  2  1  0  0  0  0
  1  3  1  0  0  0  0
M  END
>  <program>
Gaussian 16, Revision A.03

>  <basis>
6-311+G(2d) (5D, 7F)

$$$$
