/home/tau/projects/t99_calc/v1/qchem_data/log/co2.log
 OpenBabel03102621333D
Gaussian applications/g16/g16/g16 # freq wb97xd/6-311+g(2d,2p) geom=connectivity
  3  2  0  0  0  0  0  0  0  0999 V2000
    0.0000    0.0020   -0.0000 C   0  0  0  0  0  0  0  0  0  0  0  0
    1.0911   -0.3799   -0.0000 O   0  0  0  0  0  0  0  0  0  0  0  0
   -1.0911    0.3784    0.0000 O   0  0  0  0  0  0  0  0  0  0  0  0
  1  2  2  0  0  0  0
  1  3  2  0  0  0  0
M  END
>  <program>
Gaussian 16, Revision A.03

>  <basis>
6-311+G(2d,2p) (5D, 7F)

$$$$
