/home/tau/projects/t99_calc/v1/qchem_data/log/epoxide.log
 OpenBabel03102617043D
Gaussian applications/g16/g16/g16 # opt freq wb97xd/6-311+g(2d) geom=connectivit
  7  7  0  0  0  0  0  0  0  0999 V2000
    0.0098    0.7248    0.0000 C   0  0  0  0  0  0  0  0  0  0  0  0
    0.2586    1.4390    1.0804 F   0  0  0  0  0  0  0  0  0  0  0  0
    0.2586    1.4390   -1.0804 F   0  0  0  0  0  0  0  0  0  0  0  0
    0.0098   -0.7248   -0.0000 C   0  0  0  0  0  0  0  0  0  0  0  0
    0.2586   -1.4390   -1.0804 F   0  0  0  0  0  0  0  0  0  0  0  0
    0.2586   -1.4390    1.0804 F   0  0  0  0  0  0  0  0  0  0  0  0
   -1.1783    0.0000   -0.0000 O   0  0  0  0  0  0  0  0  0  0  0  0
  1  4  1  0  0  0  0
  1  7  1  0  0  0  0
  1  2  1  0  0  0  0
  3  1  1  0  0  0  0
  4  7  1  0  0  0  0
  4  6  1  0  0  0  0
  5  4  1  0  0  0  0
M  END
>  <program>
Gaussian 16, Revision A.03

>  <basis>
6-311+G(2d) (5D, 7F)

$$$$
