/home/tau/projects/t99_calc/v1/qchem_data/log/triflic.log
 OpenBabel03102621333D
Gaussian applications/g16/g16/g16 # opt wb97xd/6-311+g(2d) geom=connectivity scf
  9  8  0  0  0  0  0  0  0  0999 V2000
   -0.9945   -0.0038   -0.0023 C   0  0  0  0  0  0  0  0  0  0  0  0
   -1.3552   -1.2315    0.3506 F   0  0  0  0  0  0  0  0  0  0  0  0
   -1.5267    0.8685    0.8337 F   0  0  0  0  0  0  0  0  0  0  0  0
    0.8557    0.1376    0.0813 S   0  0  0  0  0  0  0  0  0  0  0  0
    1.2413   -0.2416    1.4006 O   0  0  0  0  0  1  0  0  0  0  0  0
    1.2110    1.3645   -0.5333 O   0  0  0  0  0  1  0  0  0  0  0  0
    1.2435   -1.0273   -0.9261 O   0  0  0  0  0  0  0  0  0  0  0  0
    1.3818   -1.8374   -0.4152 H   0  0  0  0  0  0  0  0  0  0  0  0
   -1.4150    0.2400   -1.2289 F   0  0  0  0  0  0  0  0  0  0  0  0
  1  4  1  0  0  0  0
  1  2  1  0  0  0  0
  1  3  1  0  0  0  0
  4  5  1  0  0  0  0
  6  4  1  0  0  0  0
  7  8  1  0  0  0  0
  7  4  1  0  0  0  0
  9  1  1  0  0  0  0
M  END
>  <program>
Gaussian 16, Revision A.03

>  <basis>
6-311+G(2d) (5D, 7F)

$$$$
