static/storage/logs/1_butene.log
 OpenBabel02182622403D
Gaussian applications/g16/g16/g16 # opt freq uwb97xd/6-311+g(2d,2p) geom=connect
 12 11  0  0  0  0  0  0  0  0999 V2000
   -1.2217   -0.4472   -0.0283 C   0  0  0  0  0  0  0  0  0  0  0  0
   -1.0374   -1.1438    1.1058 F   0  0  0  0  0  0  0  0  0  0  0  0
   -0.0054    0.3751   -0.3528 C   0  0  0  0  0  0  0  0  0  0  0  0
   -0.2366    1.4161   -1.1512 F   0  0  0  0  0  0  0  0  0  0  0  0
    1.2335    0.1394    0.0532 C   0  0  0  0  0  0  0  0  0  0  0  0
    2.2391    0.8993   -0.2798 F   0  0  0  0  0  0  0  0  0  0  0  0
    1.5987   -0.8544    0.8108 F   0  0  0  0  0  0  0  0  0  0  0  0
   -2.2768    0.3709    0.1336 F   0  0  0  0  0  0  0  0  0  0  0  0
   -1.5893   -1.4671   -1.1376 C   0  0  0  0  0  0  0  0  0  0  0  0
   -0.5967   -2.3415   -1.2869 F   0  0  0  0  0  0  0  0  0  0  0  0
   -2.6939   -2.1244   -0.8169 F   0  0  0  0  0  0  0  0  0  0  0  0
   -1.7803   -0.8386   -2.2927 F   0  0  0  0  0  0  0  0  0  0  0  0
  1  8  1  0  0  0  0
  1  2  1  0  0  0  0
  3  1  1  0  0  0  0
  3  5  2  0  0  0  0
  4  3  1  0  0  0  0
  5  7  1  0  0  0  0
  6  5  1  0  0  0  0
  9 11  1  0  0  0  0
  9  1  1  0  0  0  0
 10  9  1  0  0  0  0
 12  9  1  0  0  0  0
M  END
>  <program>
Gaussian 16, Revision A.03

>  <basis>
6-311+G(2d,2p) (5D, 7F)

$$$$
