static/storage/logs/2_propyl.log
 OpenBabel02182622403D
Gaussian applications/g16/g16/g16 # opt wb97xd/6-311+g(2d) geom=connectivity fre
 10  9  0  0  0  0  0  0  0  0999 V2000
   -1.3233   -0.1398   -0.0255 C   0  0  0  0  0  0  0  0  0  0  0  0
   -1.7782    0.0399    1.2210 F   0  0  0  0  0  0  0  0  0  0  0  0
   -1.2102   -1.4457   -0.2434 F   0  0  0  0  0  0  0  0  0  0  0  0
   -0.0306    1.8448   -0.0508 F   0  0  0  0  0  0  0  0  0  0  0  0
   -2.2370    0.3599   -0.8580 F   0  0  0  0  0  0  0  0  0  0  0  0
    1.4851   -1.1408   -0.8685 F   0  0  0  0  0  0  0  0  0  0  0  0
    1.4628   -0.6030    1.2185 F   0  0  0  0  0  0  0  0  0  0  0  0
   -0.0034    0.5433   -0.2276 C   0  0  0  0  0  3  0  0  0  0  0  0
    1.3308   -0.1215   -0.0263 C   0  0  0  0  0  0  0  0  0  0  0  0
    2.3053    0.7568   -0.2327 F   0  0  0  0  0  0  0  0  0  0  0  0
  1  2  1  0  0  0  0
  3  1  1  0  0  0  0
  5  1  1  0  0  0  0
  6  9  1  0  0  0  0
  8  4  1  0  0  0  0
  8  9  1  0  0  0  0
  8  1  1  0  0  0  0
  9  7  1  0  0  0  0
 10  9  1  0  0  0  0
M  END
>  <program>
Gaussian 16, Revision A.03

>  <basis>
6-311+G(2d) (5D, 7F)

$$$$
