/home/tau/projects/t99_calc/v1/static/storage/logs/c2f5h.log
 OpenBabel02182619173D
Gaussian applications/g16/g16/g16 # opt wb97xd/6-311+g(2d,2p) freq geom=connecti
  8  7  0  0  0  0  0  0  0  0999 V2000
   -0.8572    0.0005    0.4374 C   0  0  0  0  0  0  0  0  0  0  0  0
   -1.4584    1.0939   -0.0615 F   0  0  0  0  0  0  0  0  0  0  0  0
    0.7348   -0.0015   -1.3183 F   0  0  0  0  0  0  0  0  0  0  0  0
    1.2239    1.0813    0.4883 F   0  0  0  0  0  0  0  0  0  0  0  0
   -1.4590   -1.0936   -0.0611 F   0  0  0  0  0  0  0  0  0  0  0  0
    0.6157   -0.0002    0.0018 C   0  0  0  0  0  0  0  0  0  0  0  0
    1.2237   -1.0803    0.4903 F   0  0  0  0  0  0  0  0  0  0  0  0
   -0.9361    0.0001    1.5252 H   0  0  0  0  0  0  0  0  0  0  0  0
  1  8  1  0  0  0  0
  2  1  1  0  0  0  0
  3  6  1  0  0  0  0
  5  1  1  0  0  0  0
  6  1  1  0  0  0  0
  6  4  1  0  0  0  0
  6  7  1  0  0  0  0
M  END
>  <program>
Gaussian 16, Revision A.03

>  <basis>
6-311+G(2d,2p) (5D, 7F)

$$$$
