/home/tau/projects/t99_calc/v1/static/storage/logs/cf3o.log
 OpenBabel02182619163D
Gaussian applications/g16/g16/g16 # opt freq wb97xd/6-311+g(2d,2p) geom=connecti
  5  4  0  0  0  0  0  0  0  0999 V2000
   -0.0054   -0.0000    0.0380 C   0  0  0  0  0  0  0  0  0  0  0  0
   -0.8686    0.0027   -0.9735 F   0  0  0  0  0  0  0  0  0  0  0  0
    0.7755    1.0706   -0.0380 F   0  0  0  0  0  0  0  0  0  0  0  0
    0.7737   -1.0717   -0.0421 F   0  0  0  0  0  0  0  0  0  0  0  0
   -0.7617   -0.0018    1.1569 O   0  0  0  0  0  1  0  0  0  0  0  0
  1  5  1  0  0  0  0
  2  1  1  0  0  0  0
  3  1  1  0  0  0  0
  4  1  1  0  0  0  0
M  END
>  <program>
Gaussian 16, Revision A.03

>  <basis>
6-311+G(2d,2p) (5D, 7F)

$$$$
