static/storage/logs/hexane.log
 OpenBabel02182622403D
Gaussian applications/g16/g16/g16 # opt wb97xd/6-311+g(2d) geom=connectivity
 20 19  0  0  0  0  0  0  0  0999 V2000
   -1.9214   -0.5062   -0.2235 C   0  0  0  0  0  0  0  0  0  0  0  0
   -1.9906   -0.8260   -1.5196 F   0  0  0  0  0  0  0  0  0  0  0  0
   -1.8010   -1.6272    0.5011 F   0  0  0  0  0  0  0  0  0  0  0  0
   -0.6713    0.3999    0.0035 C   0  0  0  0  0  0  0  0  0  0  0  0
   -0.6370    1.3171   -0.9716 F   0  0  0  0  0  0  0  0  0  0  0  0
   -0.7913    1.0230    1.1828 F   0  0  0  0  0  0  0  0  0  0  0  0
    0.6713   -0.3999    0.0036 C   0  0  0  0  0  0  0  0  0  0  0  0
    0.6371   -1.3171   -0.9715 F   0  0  0  0  0  0  0  0  0  0  0  0
    0.7912   -1.0230    1.1829 F   0  0  0  0  0  0  0  0  0  0  0  0
    1.9214    0.5062   -0.2234 C   0  0  0  0  0  0  0  0  0  0  0  0
    1.8009    1.6272    0.5011 F   0  0  0  0  0  0  0  0  0  0  0  0
    1.9906    0.8260   -1.5195 F   0  0  0  0  0  0  0  0  0  0  0  0
    3.2699   -0.1659    0.1719 C   0  0  0  0  0  0  0  0  0  0  0  0
   -3.2699    0.1659    0.1717 C   0  0  0  0  0  0  0  0  0  0  0  0
    4.2660    0.5934   -0.2649 F   0  0  0  0  0  0  0  0  0  0  0  0
    3.3711   -0.2833    1.4872 F   0  0  0  0  0  0  0  0  0  0  0  0
    3.3709   -1.3677   -0.3829 F   0  0  0  0  0  0  0  0  0  0  0  0
   -3.3709    1.3677   -0.3831 F   0  0  0  0  0  0  0  0  0  0  0  0
   -4.2660   -0.5934   -0.2650 F   0  0  0  0  0  0  0  0  0  0  0  0
   -3.3712    0.2833    1.4871 F   0  0  0  0  0  0  0  0  0  0  0  0
  1  4  1  0  0  0  0
  1 14  1  0  0  0  0
  1  3  1  0  0  0  0
  2  1  1  0  0  0  0
  4  7  1  0  0  0  0
  4  6  1  0  0  0  0
  5  4  1  0  0  0  0
  7  9  1  0  0  0  0
  8  7  1  0  0  0  0
 10  7  1  0  0  0  0
 10 13  1  0  0  0  0
 10 11  1  0  0  0  0
 12 10  1  0  0  0  0
 13 16  1  0  0  0  0
 14 20  1  0  0  0  0
 15 13  1  0  0  0  0
 17 13  1  0  0  0  0
 18 14  1  0  0  0  0
 19 14  1  0  0  0  0
M  END
>  <program>
Gaussian 16, Revision A.03

>  <basis>
6-311+G(2d) (5D, 7F)

$$$$
