/home/tau/projects/t99_calc/v1/static/storage/logs/propene.log
 OpenBabel02182619173D
Gaussian 16 # opt freq uwb97xd/6-311+g(2d) geom=connectivity
  9  8  0  0  0  0  0  0  0  0999 V2000
    1.4079   -0.1623   -0.0000 C   0  0  0  0  0  0  0  0  0  0  0  0
    2.5490    0.4696    0.0002 F   0  0  0  0  0  0  0  0  0  0  0  0
    1.5653   -1.4547   -0.0002 F   0  0  0  0  0  0  0  0  0  0  0  0
   -1.1248   -0.1336   -0.0001 C   0  0  0  0  0  0  0  0  0  0  0  0
   -1.0783   -1.4624    0.0002 F   0  0  0  0  0  0  0  0  0  0  0  0
   -1.8131    0.2615   -1.0753 F   0  0  0  0  0  0  0  0  0  0  0  0
    0.2460    0.4730   -0.0003 C   0  0  0  0  0  0  0  0  0  0  0  0
    0.2365    1.8057   -0.0005 F   0  0  0  0  0  0  0  0  0  0  0  0
   -1.8121    0.2623    1.0758 F   0  0  0  0  0  0  0  0  0  0  0  0
  1  2  1  0  0  0  0
  3  1  1  0  0  0  0
  4  5  1  0  0  0  0
  4  9  1  0  0  0  0
  6  4  1  0  0  0  0
  7  4  1  0  0  0  0
  7  1  2  0  0  0  0
  8  7  1  0  0  0  0
M  END
>  <program>
Gaussian 16, Revision A.03

>  <basis>
6-311+G(2d) (5D, 7F)

$$$$
