/home/tau/projects/t99_calc/v1/static/storage/logs/propane.log
 OpenBabel02182619163D
Gaussian applications/g16/g16/g16 # opt freq wb97xd/6-311+g(2d,2p) geom=connecti
 11 10  0  0  0  0  0  0  0  0999 V2000
    0.0000    0.0000    0.5866 C   0  0  0  0  0  0  0  0  0  0  0  0
   -0.8737    0.0000    1.2427 H   0  0  0  0  0  0  0  0  0  0  0  0
    0.8737   -0.0000    1.2427 H   0  0  0  0  0  0  0  0  0  0  0  0
   -0.0000   -1.2689   -0.2594 C   0  0  0  0  0  0  0  0  0  0  0  0
    0.8807   -1.3080   -0.9037 H   0  0  0  0  0  0  0  0  0  0  0  0
   -0.0000   -2.1657    0.3611 H   0  0  0  0  0  0  0  0  0  0  0  0
   -0.8807   -1.3080   -0.9037 H   0  0  0  0  0  0  0  0  0  0  0  0
    0.0000    1.2689   -0.2594 C   0  0  0  0  0  0  0  0  0  0  0  0
    0.0000    2.1657    0.3611 H   0  0  0  0  0  0  0  0  0  0  0  0
    0.8807    1.3080   -0.9037 H   0  0  0  0  0  0  0  0  0  0  0  0
   -0.8807    1.3080   -0.9037 H   0  0  0  0  0  0  0  0  0  0  0  0
  1  2  1  0  0  0  0
  1  3  1  0  0  0  0
  4  6  1  0  0  0  0
  4  1  1  0  0  0  0
  5  4  1  0  0  0  0
  7  4  1  0  0  0  0
  8  9  1  0  0  0  0
  8  1  1  0  0  0  0
 10  8  1  0  0  0  0
 11  8  1  0  0  0  0
M  END
>  <program>
Gaussian 16, Revision A.03

>  <basis>
6-311+G(2d,2p) (5D, 7F)

$$$$
